crbn_molecule1
                    3D
 Schrodinger Suite 2020-4.
 22 24  0  0  1  0            999 V2000
    8.3780  -57.6340    4.1730 C   0  0  0  0  0  0
    8.9460  -57.5530    2.9220 C   0  0  0  0  0  0
    9.3670  -56.1380    2.6460 C   0  0  0  0  0  0
    8.9740  -55.4390    3.8640 N   0  0  0  0  0  0
    8.4070  -56.3050    4.7380 C   0  0  0  0  0  0
    8.0070  -59.9870    3.8980 C   0  0  0  0  0  0
    8.5850  -59.9170    2.6140 C   0  0  0  0  0  0
    9.0640  -58.6890    2.1110 C   0  0  0  0  0  0
    7.8980  -58.8340    4.6930 C   0  0  0  0  0  0
    7.9860  -55.9930    5.8420 O   0  0  0  0  0  0
    9.6460  -58.6140    0.8210 N   0  0  0  0  0  0
    9.1670  -54.0130    4.1050 C   0  0  1  0  0  0
   10.6330  -53.6970    4.3950 C   0  0  0  0  0  0
   10.8030  -52.1950    4.6590 C   0  0  0  0  0  0
   10.1470  -51.3770    3.5690 C   0  0  0  0  0  0
    9.1970  -51.9130    2.7500 N   0  0  0  0  0  0
    8.7200  -53.1780    2.9200 C   0  0  0  0  0  0
    7.8890  -53.6190    2.1390 O   0  0  0  0  0  0
   10.4690  -50.2060    3.4330 O   0  0  0  0  0  0
    9.9960  -57.7200    0.4490 H   0  0  0  0  0  0
    9.7270  -59.4570    0.2330 H   0  0  0  0  0  0
    8.8170  -51.3360    1.9830 H   0  0  0  0  0  0
  1  5  1  0  0  0
  1  9  2  0  0  0
  1  2  1  0  0  0
  2  3  1  0  0  0
  2  8  2  0  0  0
  3  4  1  0  0  0
  4 12  1  0  0  0
  4  5  1  0  0  0
  5 10  2  0  0  0
  6  9  1  0  0  0
  6  7  2  0  0  0
  7  8  1  0  0  0
  8 11  1  0  0  0
 11 20  1  0  0  0
 11 21  1  0  0  0
 12 13  1  0  0  0
 12 17  1  0  0  0
 13 14  1  0  0  0
 14 15  1  0  0  0
 15 19  2  0  0  0
 15 16  1  0  0  0
 16 17  1  0  0  0
 16 22  1  0  0  0
 17 18  2  0  0  0
M  END
> <s_m_entry_id>
6

> <s_m_entry_name>
crbn.1_mol2

> <s_pdb_PDB_TITLE>
protein modelled_cereblon_crystal_pose

> <s_pdb_PDB_format_version>
3.0

> <s_m_Source_Path>
C:\Users\jatin\Desktop\protac_modelling\MEGADOCK

> <s_m_Source_File>
crbn.pdb

> <i_m_Source_File_Index>
1

> <r_pdb_PDB_CRYST1_a>
71.673

> <r_pdb_PDB_CRYST1_b>
129.068

> <r_pdb_PDB_CRYST1_c>
198.446

> <r_pdb_PDB_CRYST1_alpha>
90

> <r_pdb_PDB_CRYST1_beta>
90

> <r_pdb_PDB_CRYST1_gamma>
90

> <s_pdb_PDB_CRYST1_Space_Group>
P212121

> <i_pdb_PDB_CRYST1_z>
0

> <s_m_subgroup_title>
crbn_split_by_molecule

> <s_m_subgroupid>
crbn_split_by_molecule

> <b_m_subgroup_collapsed>
0

$$$$
