new_complex_molecule3 new_complex_molecule2
                    3D
 Schrodinger Suite 2019-4.
 52 56  0  0  1  0            999 V2000
    8.3780  -57.6340    4.1730 C   0  0  0  0  0  0
    8.9460  -57.5530    2.9220 C   0  0  0  0  0  0
    9.3670  -56.1380    2.6460 C   0  0  0  0  0  0
    8.9740  -55.4390    3.8640 N   0  0  0  0  0  0
    8.4070  -56.3050    4.7380 C   0  0  0  0  0  0
    8.0070  -59.9870    3.8980 C   0  0  0  0  0  0
    8.5850  -59.9170    2.6140 C   0  0  0  0  0  0
    9.0640  -58.6890    2.1110 C   0  0  0  0  0  0
    7.8980  -58.8340    4.6930 C   0  0  0  0  0  0
    7.9860  -55.9930    5.8420 O   0  0  0  0  0  0
    9.6460  -58.6140    0.8210 N   0  0  0  0  0  0
    9.1670  -54.0130    4.1050 C   0  0  1  0  0  0
   10.6330  -53.6970    4.3950 C   0  0  0  0  0  0
   10.8030  -52.1950    4.6590 C   0  0  0  0  0  0
   10.1470  -51.3770    3.5690 C   0  0  0  0  0  0
    9.1970  -51.9130    2.7500 N   0  0  0  0  0  0
    8.7200  -53.1780    2.9200 C   0  0  0  0  0  0
    7.8890  -53.6190    2.1390 O   0  0  0  0  0  0
   10.4690  -50.2060    3.4330 O   0  0  0  0  0  0
    9.9960  -57.7200    0.4490 H   0  0  0  0  0  0
    9.7270  -59.4570    0.2330 H   0  0  0  0  0  0
    8.8170  -51.3360    1.9830 H   0  0  0  0  0  0
    9.7590  -57.6620  -12.8080 C   0  0  0  0  0  0
    9.9320  -58.5530  -11.7880 N   0  0  0  0  0  0
   10.2760  -56.5690  -12.7600 O   0  0  0  0  0  0
    8.9850  -58.1200  -13.8190 C   0  0  0  0  0  0
    8.9240  -59.3210  -14.0110 O   0  0  0  0  0  0
    8.1660  -57.2330  -14.7630 C   0  0  0  0  0  0
    6.8200  -56.6330  -14.3240 C   0  0  0  0  0  0
    6.5170  -53.7710  -16.7380 C   0  0  0  0  0  0
    5.2400  -53.3980  -16.5830 C   0  0  0  0  0  0
    4.4680  -54.0580  -15.7070 C   0  0  0  0  0  0
    4.9680  -55.0800  -14.9930 C   0  0  0  0  0  0
    6.2540  -55.4730  -15.1350 C   0  0  0  0  0  0
    7.0090  -54.7930  -16.0210 C   0  0  0  0  0  0
    3.7730  -55.9330  -13.7840 Br  0  0  0  0  0  0
    7.6220  -52.8500  -17.9720 Br  0  0  0  0  0  0
   10.7330  -58.2570  -10.5960 C   0  0  0  0  0  0
   10.6860  -59.4580   -9.6400 C   0  0  0  0  0  0
    9.4420  -59.5340   -8.7990 C   0  0  0  0  0  0
    9.1640  -58.8650   -7.6680 C   0  0  0  0  0  0
    8.0110  -59.2080   -7.2600 N   0  0  0  0  0  0
    7.4960  -60.0630   -8.0410 C   0  0  0  0  0  0
    8.3640  -60.3020   -9.0290 C   0  0  0  0  0  0
    6.3170  -60.6890   -8.0000 C   0  0  0  0  0  0
    6.0450  -61.5590   -8.9870 C   0  0  0  0  0  0
    6.8960  -61.8280  -10.0030 C   0  0  0  0  0  0
    8.0780  -61.1730  -10.0060 C   0  0  0  0  0  0
    6.5010  -62.7410  -10.9530 O   0  0  0  0  0  0
    7.0360  -64.0430  -10.9080 C   0  0  0  0  0  0
    9.4750  -59.4620  -11.8750 H   0  0  0  0  0  0
    7.5450  -58.8390   -6.3990 H   0  0  0  0  0  0
  1  5  1  0  0  0
  1  9  2  0  0  0
  1  2  1  0  0  0
  2  3  1  0  0  0
  2  8  2  0  0  0
  3  4  1  0  0  0
  4 12  1  0  0  0
  4  5  1  0  0  0
  5 10  2  0  0  0
  6  9  1  0  0  0
  6  7  2  0  0  0
  7  8  1  0  0  0
  8 11  1  0  0  0
 11 20  1  0  0  0
 11 21  1  0  0  0
 12 13  1  0  0  0
 12 17  1  0  0  0
 13 14  1  0  0  0
 14 15  1  0  0  0
 15 19  2  0  0  0
 15 16  1  0  0  0
 16 17  1  0  0  0
 16 22  1  0  0  0
 17 18  2  0  0  0
 23 26  1  0  0  0
 23 24  1  0  0  0
 23 25  2  0  0  0
 24 38  1  0  0  0
 24 51  1  0  0  0
 26 28  1  0  0  0
 26 27  2  0  0  0
 28 29  1  0  0  0
 29 34  1  0  0  0
 30 37  1  0  0  0
 30 31  2  0  0  0
 30 35  1  0  0  0
 31 32  1  0  0  0
 32 33  2  0  0  0
 33 36  1  0  0  0
 33 34  1  0  0  0
 34 35  2  0  0  0
 38 39  1  0  0  0
 39 40  1  0  0  0
 40 41  2  0  0  0
 40 44  1  0  0  0
 41 42  1  0  0  0
 42 43  1  0  0  0
 42 52  1  0  0  0
 43 45  2  0  0  0
 43 44  1  0  0  0
 44 48  2  0  0  0
 45 46  1  0  0  0
 46 47  2  0  0  0
 47 49  1  0  0  0
 47 48  1  0  0  0
 49 50  1  0  0  0
M  END
> <s_m_entry_name>
conformers.6

$$$$
