tau_molecule1
                    3D
 Schrodinger Suite 2020-4.
 30 32  0  0  1  0            999 V2000
    3.0030    7.4070    6.6490 C   0  0  0  0  0  0
    3.9060    8.1700    7.3320 N   0  0  0  0  0  0
    1.9650    7.0710    7.1730 O   0  0  0  0  0  0
    3.3850    7.0890    5.3910 C   0  0  0  0  0  0
    4.1550    7.8310    4.8080 O   0  0  0  0  0  0
    2.9170    5.8480    4.6230 C   0  0  0  0  0  0
    3.5230    4.4630    4.9010 C   0  0  0  0  0  0
    0.8130    2.2370    3.5560 C   0  0  0  0  0  0
    1.4160    1.0410    3.5170 C   0  0  0  0  0  0
    2.6910    0.9390    3.9190 C   0  0  0  0  0  0
    3.3570    2.0210    4.3570 C   0  0  0  0  0  0
    2.7670    3.2360    4.4040 C   0  0  0  0  0  0
    1.4850    3.3130    3.9950 C   0  0  0  0  0  0
    5.1590    1.7440    4.9000 Br  0  0  0  0  0  0
   -0.9880    2.4000    2.9910 Br  0  0  0  0  0  0
    3.6890    8.6240    8.7090 C   0  0  0  0  0  0
    4.9110    9.4260    9.1800 C   0  0  0  0  0  0
    6.0720    8.5820    9.6290 C   0  0  0  0  0  0
    6.2480    7.9790   10.8170 C   0  0  0  0  0  0
    7.3580    7.3620   10.8040 N   0  0  0  0  0  0
    7.9400    7.5100    9.6880 C   0  0  0  0  0  0
    7.1650    8.2750    8.9120 C   0  0  0  0  0  0
    9.1090    7.0450    9.2410 C   0  0  0  0  0  0
    9.4670    7.3760    7.9890 C   0  0  0  0  0  0
    8.7130    8.1470    7.1740 C   0  0  0  0  0  0
    7.5370    8.5970    7.6660 C   0  0  0  0  0  0
    9.1910    8.4160    5.9130 O   0  0  0  0  0  0
    9.7550    9.6810    5.6550 C   0  0  0  0  0  0
    4.7670    8.4270    6.8470 H   0  0  0  0  0  0
    7.7440    6.8060   11.6010 H   0  0  0  0  0  0
  1  4  1  0  0  0
  1  2  1  0  0  0
  1  3  2  0  0  0
  2 16  1  0  0  0
  2 29  1  0  0  0
  4  6  1  0  0  0
  4  5  2  0  0  0
  6  7  1  0  0  0
  7 12  1  0  0  0
  8 15  1  0  0  0
  8  9  2  0  0  0
  8 13  1  0  0  0
  9 10  1  0  0  0
 10 11  2  0  0  0
 11 14  1  0  0  0
 11 12  1  0  0  0
 12 13  2  0  0  0
 16 17  1  0  0  0
 17 18  1  0  0  0
 18 19  2  0  0  0
 18 22  1  0  0  0
 19 20  1  0  0  0
 20 21  1  0  0  0
 20 30  1  0  0  0
 21 23  2  0  0  0
 21 22  1  0  0  0
 22 26  2  0  0  0
 23 24  1  0  0  0
 24 25  2  0  0  0
 25 27  1  0  0  0
 25 26  1  0  0  0
 27 28  1  0  0  0
M  END
> <s_m_entry_id>
4

> <s_m_entry_name>
tau.1_mol2

> <s_pdb_PDB_TITLE>
Displayed atoms

> <s_pdb_PDB_format_version>
3.0

> <s_m_Source_Path>
C:\Users\jatin\Desktop\protac_modelling\MEGADOCK

> <s_m_Source_File>
tau.pdb

> <i_m_Source_File_Index>
1

> <s_m_subgroup_title>
tau_split_by_molecule

> <s_m_subgroupid>
tau_split_by_molecule

> <b_m_subgroup_collapsed>
0

$$$$
